iidm/iidm-xml-converter/src/test/resources/V1_10/subnetworks.xml
<?xml version="1.0" encoding="UTF-8"?>
<iidm:network xmlns:iidm="http://www.powsybl.org/schema/iidm/1_10" id="Merged" caseDate="2013-01-15T18:40:00.000+01:00" forecastDistance="0" sourceFormat="hybrid" minimumValidationLevel="STEADY_STATE_HYPOTHESIS">
    <iidm:substation id="s1" country="FR">
        <iidm:voltageLevel id="vl1" nominalV="380.0" topologyKind="BUS_BREAKER">
            <iidm:busBreakerTopology>
                <iidm:bus id="b1"/>
            </iidm:busBreakerTopology>
            <iidm:danglingLine id="dl1" name="dl1_name" p0="0.0" q0="0.0" r="1.0" x="2.0" g="4.0" b="5.0" ucteXnodeCode="code" bus="b1" connectableBus="b1"/>
        </iidm:voltageLevel>
    </iidm:substation>
    <iidm:substation id="s2" country="FR">
        <iidm:voltageLevel id="vl2" nominalV="380.0" topologyKind="BUS_BREAKER">
            <iidm:busBreakerTopology>
                <iidm:bus id="b2"/>
            </iidm:busBreakerTopology>
            <iidm:danglingLine id="dl2" name="dl2_name" p0="0.0" q0="0.0" r="1.0" x="2.0" g="4.0" b="5.0" ucteXnodeCode="code" bus="b2" connectableBus="b2"/>
        </iidm:voltageLevel>
    </iidm:substation>
    <iidm:tieLine id="dl1 + dl2" name="dl1_name + dl2_name" danglingLineId1="dl1" danglingLineId2="dl2"/>
</iidm:network>
